omf/scratch/hostingcapacity/dsstestcircuit/volts.csv
Bus, BasekV, Node1, Magnitude1, Angle1, pu1, Node2, Magnitude2, Angle2, pu2, Node3, Magnitude3, Angle3, pu3
"BUSSOURCE", 46, 1,    26558.3,    0.0,         1, 2,    26558.3, -120.0,         1, 3,    26558.5,  120.0,         1
"MDV_SUB_1_HSB", 46, 1,    26558.3,    0.0,         1, 2,    26558.3, -120.0,         1, 3,    26558.5,  120.0,         1
"FEEDERHEADBUS", 12.47, 1,    7199.64,  -30.0,         1, 2,    7199.64, -150.0,         1, 3,    7199.62,   90.0,         1
"BUSPRIM1", 12.47, 1,    7199.64,  -30.0,         1, 2,    7199.64, -150.0,         1, 3,    7199.62,   90.0,         1
"BUSPRIM2", 12.47, 1,    7199.64,  -30.0,         1, 2,    7199.64, -150.0,         1, 3,    7199.62,   90.0,         1
"BUSPRIM3", 12.47, 1,    7199.64,  -30.0,         1, 2,    7199.64, -150.0,         1, 3,    7199.62,   90.0,         1
"BUSPRIM4", 12.47, 1,    7199.64,  -30.0,         1, 2,    7199.64, -150.0,         1, 3,    7199.62,   90.0,         1
"BUSPRIM5", 12.47, 1,    7199.64,  -30.0,         1, 2,    7199.64, -150.0,         1, 3,    7199.62,   90.0,         1
"BUSPRIM6", 12.47, 1,    7199.64,  -30.0,         1, 2,    7199.64, -150.0,         1, 3,    7199.62,   90.0,         1
"BUSPRIM7", 12.47, 1,    7199.64,  -30.0,         1, 2,    7199.64, -150.0,         1, 3,    7199.62,   90.0,         1
"BUSPRIM8", 12.47, 1,    7199.64,  -30.0,         1, 2,    7199.64, -150.0,         1, 3,    7199.62,   90.0,         1
"BUSPRIM9", 12.47, 1,    7199.64,  -30.0,         1, 2,    7199.64, -150.0,         1, 3,    7199.62,   90.0,         1
"BUSPRIM10", 12.47, 1,    7199.64,  -30.0,         1, 2,    7199.64, -150.0,         1, 3,    7199.62,   90.0,         1
"BUSPRIM11", 12.47, 1,    7199.64,  -30.0,         1, 2,    7199.64, -150.0,         1, 3,    7199.62,   90.0,         1
"BUSPRIM12", 12.47, 1,    7199.64,  -30.0,         1, 2,    7199.64, -150.0,         1, 3,    7199.62,   90.0,         1
"BUSTRAFO1LV", 0.41569, 1,    240.003,  -30.0,         1, 0, 0, 0, 0, 0, 0, 0, 0
"BUSSEC1_1", 0.41569, 1,    240.003,  -30.0,         1, 0, 0, 0, 0, 0, 0, 0, 0
"BUSSEC1_2", 0.41569, 1,    240.003,  -30.0,         1, 0, 0, 0, 0, 0, 0, 0, 0
"BUSSEC1_3", 0.41569, 1,    240.003,  -30.0,         1, 0, 0, 0, 0, 0, 0, 0, 0
"BUSSEC1_4", 0.41569, 1,    240.003,  -30.0,         1, 0, 0, 0, 0, 0, 0, 0, 0
"BUSSEC1_5", 0.41569, 1,    240.003,  -30.0,         1, 0, 0, 0, 0, 0, 0, 0, 0
"BUSTRAFO2LV", 0.41569, 2,    240.003, -150.0,         1, 0, 0, 0, 0, 0, 0, 0, 0
"BUSSEC2_1", 0.41569, 2,    240.003, -150.0,         1, 0, 0, 0, 0, 0, 0, 0, 0
"BUSTRAFO3LV", 0.41569, 3,    240.002,   90.0,         1, 0, 0, 0, 0, 0, 0, 0, 0
"BUSSEC3_1", 0.41569, 3,    240.002,   90.0,         1, 0, 0, 0, 0, 0, 0, 0, 0
"BUSSEC3_2", 0.41569, 3,    240.002,   90.0,         1, 0, 0, 0, 0, 0, 0, 0, 0
"BUSSEC3_3", 0.41569, 3,    240.002,   90.0,         1, 0, 0, 0, 0, 0, 0, 0, 0
"BUSSEC3_4", 0.41569, 3,    240.002,   90.0,         1, 0, 0, 0, 0, 0, 0, 0, 0
"BUSSEC3_5", 0.41569, 3,    240.002,   90.0,         1, 0, 0, 0, 0, 0, 0, 0, 0
"BUSTRAFO4LV", 0.41569, 1,    240.003,  -30.0,         1, 0, 0, 0, 0, 0, 0, 0, 0
"BUSSEC4_0", 0.41569, 1,    240.003,  -30.0,         1, 0, 0, 0, 0, 0, 0, 0, 0
"BUSSEC4_1", 0.41569, 1,    240.003,  -30.0,         1, 0, 0, 0, 0, 0, 0, 0, 0
"BUSSEC4_2", 0.41569, 1,    240.003,  -30.0,         1, 0, 0, 0, 0, 0, 0, 0, 0
"BUSSEC4_3", 0.41569, 1,    240.003,  -30.0,         1, 0, 0, 0, 0, 0, 0, 0, 0
"BUSSEC4_4", 0.41569, 1,    240.003,  -30.0,         1, 0, 0, 0, 0, 0, 0, 0, 0
"BUSSEC4_5", 0.41569, 1,    240.003,  -30.0,         1, 0, 0, 0, 0, 0, 0, 0, 0
"BUSTRAFO5LV", 0.41569, 3,    240.002,   90.0,         1, 0, 0, 0, 0, 0, 0, 0, 0
"BUSSEC5_0", 0.41569, 3,    240.002,   90.0,         1, 0, 0, 0, 0, 0, 0, 0, 0
"BUSSEC5_1", 0.41569, 3,    240.002,   90.0,         1, 0, 0, 0, 0, 0, 0, 0, 0
"BUSSEC5_2", 0.41569, 3,    240.002,   90.0,         1, 0, 0, 0, 0, 0, 0, 0, 0
"BUSSEC5_3", 0.41569, 3,    240.002,   90.0,         1, 0, 0, 0, 0, 0, 0, 0, 0
"BUSSEC5_4", 0.41569, 3,    240.002,   90.0,         1, 0, 0, 0, 0, 0, 0, 0, 0
"BUSTRAFO6LV", 0.41569, 3,    240.002,   90.0,         1, 0, 0, 0, 0, 0, 0, 0, 0
"BUSSEC6_01", 0.41569, 3,    240.002,   90.0,         1, 0, 0, 0, 0, 0, 0, 0, 0
"BUSSEC6_02", 0.41569, 3,    240.002,   90.0,         1, 0, 0, 0, 0, 0, 0, 0, 0
"BUSSEC6_1", 0.41569, 3,    240.002,   90.0,         1, 0, 0, 0, 0, 0, 0, 0, 0
"BUSSEC6_2", 0.41569, 3,    240.002,   90.0,         1, 0, 0, 0, 0, 0, 0, 0, 0
"BUSSEC6_3", 0.41569, 3,    240.002,   90.0,         1, 0, 0, 0, 0, 0, 0, 0, 0
"BUSSEC6_4", 0.41569, 3,    240.002,   90.0,         1, 0, 0, 0, 0, 0, 0, 0, 0
"BUSTRAFO7LV", 0.41569, 1,    240.003,  -30.0,         1, 0, 0, 0, 0, 0, 0, 0, 0
"BUSSEC7_01", 0.41569, 1,    240.003,  -30.0,         1, 0, 0, 0, 0, 0, 0, 0, 0
"BUSSEC7_02", 0.41569, 1,    240.003,  -30.0,         1, 0, 0, 0, 0, 0, 0, 0, 0
"BUSSEC7_1", 0.41569, 1,    240.003,  -30.0,         1, 0, 0, 0, 0, 0, 0, 0, 0
"BUSSEC7_2", 0.41569, 1,    240.003,  -30.0,         1, 0, 0, 0, 0, 0, 0, 0, 0
"BUSSEC7_3", 0.41569, 1,    240.003,  -30.0,         1, 0, 0, 0, 0, 0, 0, 0, 0
"BUSSEC7_4", 0.41569, 1,    240.003,  -30.0,         1, 0, 0, 0, 0, 0, 0, 0, 0
"BUSTRAFO8LV", 0.41569, 2,    240.003, -150.0,         1, 0, 0, 0, 0, 0, 0, 0, 0
"BUSSEC8_01", 0.41569, 2,    240.003, -150.0,         1, 0, 0, 0, 0, 0, 0, 0, 0
"BUSSEC8_02", 0.41569, 2,    240.003, -150.0,         1, 0, 0, 0, 0, 0, 0, 0, 0
"BUSSEC8_1", 0.41569, 2,    240.003, -150.0,         1, 0, 0, 0, 0, 0, 0, 0, 0
"BUSSEC8_2", 0.41569, 2,    240.003, -150.0,         1, 0, 0, 0, 0, 0, 0, 0, 0
"BUSSEC8_3", 0.41569, 2,    240.003, -150.0,         1, 0, 0, 0, 0, 0, 0, 0, 0
"BUSSEC8_4", 0.41569, 2,    240.003, -150.0,         1, 0, 0, 0, 0, 0, 0, 0, 0
"BUSTRAFO9LV", 0.41569, 3,    240.002,   90.0,         1, 0, 0, 0, 0, 0, 0, 0, 0
"BUSSEC9_0", 0.41569, 3,    240.002,   90.0,         1, 0, 0, 0, 0, 0, 0, 0, 0
"BUSSEC9_1", 0.41569, 3,    240.002,   90.0,         1, 0, 0, 0, 0, 0, 0, 0, 0
"BUSSEC9_2", 0.41569, 3,    240.002,   90.0,         1, 0, 0, 0, 0, 0, 0, 0, 0
"BUSTRAFO10LV", 0.41569, 2,    240.003, -150.0,         1, 0, 0, 0, 0, 0, 0, 0, 0
"BUSSEC10_0", 0.41569, 2,    240.003, -150.0,         1, 0, 0, 0, 0, 0, 0, 0, 0
"BUSSEC10_1", 0.41569, 2,    240.003, -150.0,         1, 0, 0, 0, 0, 0, 0, 0, 0
"BUSSEC10_2", 0.41569, 2,    240.003, -150.0,         1, 0, 0, 0, 0, 0, 0, 0, 0
"BUSTRAFO11LV", 0.41569, 2,    240.003, -150.0,         1, 0, 0, 0, 0, 0, 0, 0, 0
"BUSSEC11_1", 0.41569, 2,    240.003, -150.0,         1, 0, 0, 0, 0, 0, 0, 0, 0
"BUSSEC11_2", 0.41569, 2,    240.003, -150.0,         1, 0, 0, 0, 0, 0, 0, 0, 0
"XFMRLV", 0.41569, 1,    240.003,  -30.0,         1, 0, 0, 0, 0, 0, 0, 0, 0
"BUSLV1", 0.41569, 1,    240.003,  -30.0,         1, 0, 0, 0, 0, 0, 0, 0, 0
"BUSLV2", 0.41569, 1,    240.003,  -30.0,         1, 0, 0, 0, 0, 0, 0, 0, 0
"BUSLV3", 0.41569, 1,    240.003,  -30.0,         1, 0, 0, 0, 0, 0, 0, 0, 0
"BUSLV4", 0.41569, 1,    240.003,  -30.0,         1, 0, 0, 0, 0, 0, 0, 0, 0
"BUSLV5", 0.41569, 1,    240.003,  -30.0,         1, 0, 0, 0, 0, 0, 0, 0, 0
"BUSLOAD1", 0.41569, 1,    240.003,  -30.0,         1, 0, 0, 0, 0, 0, 0, 0, 0
"BUSLOAD2", 0.41569, 1,    240.003,  -30.0,         1, 0, 0, 0, 0, 0, 0, 0, 0
"BUSLOAD3", 0.41569, 1,    240.003,  -30.0,         1, 0, 0, 0, 0, 0, 0, 0, 0
"BUSLOAD4", 0.41569, 1,    240.003,  -30.0,         1, 0, 0, 0, 0, 0, 0, 0, 0
"BUSLOAD5", 0.41569, 1,    240.003,  -30.0,         1, 0, 0, 0, 0, 0, 0, 0, 0
"BUSLOAD6", 0.41569, 1,    240.003,  -30.0,         1, 0, 0, 0, 0, 0, 0, 0, 0
"BUSLOAD7", 0.41569, 1,    240.003,  -30.0,         1, 0, 0, 0, 0, 0, 0, 0, 0
"BUSLOAD8", 0.41569, 1,    240.003,  -30.0,         1, 0, 0, 0, 0, 0, 0, 0, 0
